[General]
seed-set = 33
network = clos128

total-stack = 7MiB

**.eth[*].typename = "LayeredEthernetInterface"
**.ethernet.typename = "EthernetLayer"
**.eth[*].bitrate = 1Gbps

**.H[*].encap.typename = ""
**.H[*].llc.typename = "Ieee8022Llc"
**.H[*].eth.typename = "LayeredEthernetInterface"
**.H[*].ethernet.typename = "EthernetLayer"
**.H[*].eth.bitrate = 1Gbps

[SPANNING_TREE]
sim-time-limit = 35010ms
warmup-period = 35000ms

**.technique = ${technique = "SPANNING_TREE"}

**.hasStp = true
**.spanningTreeProtocol = "Stp"
**.visualize = true

**.H[*].numApps = 1
**.app[*].typename = "ECMPP2P"
**.H[*].app[0].localPort = 100
**.H[*].app[0].destPort = 100
**.H[*].app[0].messageLength = 7500B
**.H[*].app[0].sendInterval = 0s
**.H[*].app[0].destAddresses = moduleListByPath("**.H[*]")
**.H[*].app[0].burstDuration = 10ms
**.H[*].app[0].sleepDuration = 0s

**.H[*].app[0].mtuSize = 1500
**.H[*].app[0].loadStress = ${loadStress = 0.1..1.0 step 0.1}
**.H[*].app[0].interfaceBitRate = 1Gbps
**.app[0].chooseDestAddrMode = "perSend"
**.app[0].startTime = 35000ms
**.app[0].stopTime = 35010ms
**.app[0].delayLimit = 10ms

[SHORTEST_PATH]
sim-time-limit = 10ms
**.technique = ${technique = "SHORTEST_PATH"}

**.macForwardingTableConfigurator.typename = "MacForwardingTableConfiguratorECMP"
**.macTable.typename = "MacForwardingTableECMP"

**.H[*].numApps = 1
**.app[*].typename = "ECMPP2P"
**.H[*].app[0].localPort = 100
**.H[*].app[0].destPort = 100
**.H[*].app[0].messageLength = 7500B
**.H[*].app[0].sendInterval = 0s
**.H[*].app[0].destAddresses = moduleListByPath("**.H[*]")
**.H[*].app[0].burstDuration = 10ms
**.H[*].app[0].sleepDuration = 0s

**.H[*].app[0].mtuSize = 1500
**.H[*].app[0].loadStress = ${loadStress = 0.1..1.0 step 0.1}
**.H[*].app[0].interfaceBitRate = 1Gbps
**.app[0].chooseDestAddrMode = "perSend"
**.app[0].startTime = 0s
**.app[0].stopTime = 10ms
**.app[0].delayLimit = 10ms


[ECMP_PACKET]
sim-time-limit = 10ms
**.technique = ${technique = "ECMP_PACKET"}

**.macForwardingTableConfigurator.typename = "MacForwardingTableConfiguratorECMP"
**.SW[*].bridging.typename = "Ieee8021dRelayECMP"
**.macTable.typename = "MacForwardingTableECMP"

**.H[*].numApps = 1
**.app[*].typename = "ECMPP2P"
**.H[*].app[0].localPort = 100
**.H[*].app[0].destPort = 100
**.H[*].app[0].messageLength = 7500B
**.H[*].app[0].sendInterval = 0s
**.H[*].app[0].destAddresses = moduleListByPath("**.H[*]")
**.H[*].app[0].burstDuration = 10ms
**.H[*].app[0].sleepDuration = 0s

**.H[*].app[0].mtuSize = 1500
**.H[*].app[0].loadStress = ${loadStress = 0.1..1.0 step 0.1}
**.H[*].app[0].interfaceBitRate = 1Gbps
**.H[*].app[0].flowLevelBalance = false
**.app[0].chooseDestAddrMode = "perSend"
**.app[0].startTime = 0s
**.app[0].stopTime = 10ms
**.app[0].delayLimit = 10ms


[ECMP_FLOW]
sim-time-limit = 10ms
**.technique = ${technique = "ECMP_FLOW"}

**.macForwardingTableConfigurator.typename = "MacForwardingTableConfiguratorECMP"
**.SW[*].bridging.typename = "Ieee8021dRelayECMP"
**.macTable.typename = "MacForwardingTableECMP"

**.H[*].numApps = 1
**.app[*].typename = "ECMPP2P"
**.H[*].app[0].localPort = 100
**.H[*].app[0].destPort = 100
**.H[*].app[0].messageLength = 7500B
**.H[*].app[0].sendInterval = 0s
**.H[*].app[0].destAddresses = moduleListByPath("**.H[*]")
**.H[*].app[0].burstDuration = 10ms
**.H[*].app[0].sleepDuration = 0s

**.H[*].app[0].mtuSize = 1500
**.H[*].app[0].loadStress = ${loadStress = 0.1..1.0 step 0.1}
**.H[*].app[0].interfaceBitRate = 1Gbps
**.H[*].app[0].flowLevelBalance = true
**.app[0].chooseDestAddrMode = "perSend"
**.app[0].startTime = 0s
**.app[0].stopTime = 10ms
**.app[0].delayLimit = 10ms

