[General]
**.visualize = true
**.agingTime = 1s
**.connectionColoring = false
sim-time-limit = 30s

network = samplenetwork

**.switch.**.address="AAAAAA000003"
**.host1.**address="AAAAAA000001"
**.host2.**address="AAAAAA000002"

**.macForwardingTableConfigurator.typename = "MacForwardingTableConfiguratorECMP"
**.switch.bridging.typename = "Ieee8021dRelayECMP"

**.eth[*].typename = "LayeredEthernetInterface"
**.ethernet.typename = "EthernetLayer"
**.eth[*].bitrate = 1Gbps

**.host*.encap.typename = ""
**.host*.llc.typename = "Ieee8022Llc"
**.host*.eth.typename = "LayeredEthernetInterface"
**.host*.ethernet.typename = "EthernetLayer"
**.host*.eth.bitrate = 1Gbps

[UDPapp]
**.host*.numApps = 1
**.app[*].typename = "UdpBasicApp"
**.app[0].localPort = 100
**.app[0].destPort = 100
**.app[0].messageLength = 64000 bytes
**.app[0].startTime = 1s
**.app[0].sendInterval = 1s
**.app[0].destAddresses = moduleListByPath("**.host*")


